src/i2x/models/ieee9500/graph/line.dss
New "Line.hvmv115b1_sw" bus1=hvmv115_hsb1 bus2=hvmv115_hsb2 Switch=True r1=0.001 r0=0.001 x1=0.001 x0=0.001 C1=0 C0=0 length=0.001
New "Line.hvmv69s1b4_sw" bus1=regxfmr_hvmv69sub1_lsb1 bus2=hvmv69sub1_lsb2 Switch=True r1=0.001 r0=0.001 x1=0.001 x0=0.001 C1=0 C0=0 length=0.001
New "Line.hvmv69s1b1_sw" bus1=hvmv69sub1_lsb2 bus2=hvmv69sub1_hsb Switch=True r1=0.001 r0=0.001 x1=0.001 x0=0.001 C1=0 C0=0 length=0.001
New "Line.hvmv_sub_connector" bus1=hvmv11sub1_lsb bus2=hvmv_sub1_48332 length=0.001 units=none r1=0.001 r0=0.001 x1=0.01 x0=0.01 C1=0 C0=0
New "Line.ln5710794-3" bus1=hvmv_sub1_48332 bus2=d5710794-3_int length=0.01943604 units=km geometry=3ph_h-397_acsr397_acsr397_acsr397_acsr Seasons=1 Ratings=[0,] normamps=450 emergamps=600
New "Line.hvmv69s1b2_sw" bus1=d5710794-3_int bus2=e192860 Switch=True r1=0.001 r0=0.001 x1=0.001 x0=0.001 C1=0 C0=0 length=0.001
New "Line.hvmv69s1b3_sw" bus1=hvmv69sub1_lsb2 bus2=hvmv69s1s2_1 Switch=True r1=0.001 r0=0.001 x1=0.001 x0=0.001 C1=0 C0=0 length=0.001
New "Line.hvmv69s1s2-1" bus1=hvmv69s1s2_1 bus2=hvmv69s1s2_2 length=1 units=km geometry=3ph-69kv_397_treewire Seasons=1 Ratings=[0,] normamps=450 emergamps=600
New "Line.hvmv69s1s2-2" bus1=hvmv69s1s2_2 bus2=hvmv69s1s2_3 length=0.75 units=km geometry=3ph-69kv_397_treewire Seasons=1 Ratings=[0,] normamps=450 emergamps=600
New "Line.hvmv69s1s2-3" bus1=hvmv69s1s2_3 bus2=hvmv69s1s2_4 length=0.75 units=km geometry=3ph-69kv_397_treewire Seasons=1 Ratings=[0,] normamps=450 emergamps=600
New "Line.hvmv69s1s2-4" bus1=hvmv69s1s2_4 bus2=hvmv69s1s2_5 length=2 units=km geometry=3ph-69kv_397_treewire Seasons=1 Ratings=[0,] normamps=450 emergamps=600
New "Line.hvmv69s1s2-5" bus1=hvmv69s1s2_5 bus2=hvmv69s1s2_6 length=2 units=km geometry=3ph-69kv_397_treewire Seasons=1 Ratings=[0,] normamps=450 emergamps=600
New "Line.hvmv69s1s2-6" bus1=hvmv69s1s2_6 bus2=hvmv69s1s2_7 length=2 units=km geometry=3ph-69kv_397_treewire Seasons=1 Ratings=[0,] normamps=450 emergamps=600
New "Line.hvmv69s1s2-7" bus1=hvmv69s1s2_7 bus2=hvmv69s1s2_8 length=1 units=km geometry=3ph-69kv_397_treewire Seasons=1 Ratings=[0,] normamps=450 emergamps=600
New "Line.hvmv69s1s2-8" bus1=hvmv69s1s2_8 bus2=hvmv69s1s2_9 length=1 units=km geometry=3ph-69kv_397_treewire Seasons=1 Ratings=[0,] normamps=450 emergamps=600
New "Line.hvmv69s1s2-9" bus1=hvmv69s1s2_9 bus2=hvmv69s1s2_10 length=1 units=km geometry=3ph-69kv_397_treewire Seasons=1 Ratings=[0,] normamps=450 emergamps=600
New "Line.hvmv69s2b3_sw" bus1=hvmv69s1s2_10 bus2=hvmv69sub2_lnb Switch=True r1=0.001 r0=0.001 x1=0.001 x0=0.001 C1=0 C0=0 length=0.001
New "Line.hvmv69s2b1_sw" bus1=hvmv69sub2_lnb bus2=hvmv69sub2_hsb Switch=True r1=0.001 r0=0.001 x1=0.001 x0=0.001 C1=0 C0=0 length=0.001
New "Line.hvmv69s2b2_sw" bus1=hvmv11sub2_lsb bus2=m1047300 Switch=True r1=0.001 r0=0.001 x1=0.001 x0=0.001 C1=0 C0=0 length=0.001
New "Line.hvmv69s2b4_sw" bus1=hvmv69sub2_lnb bus2=hvmv69s2s3_1 Switch=True r1=0.001 r0=0.001 x1=0.001 x0=0.001 C1=0 C0=0 length=0.001
New "Line.hvmv69s2s3-1" bus1=hvmv69s2s3_1 bus2=hvmv69s2s3_2 length=4.5 units=km geometry=3ph-69kv_397_treewire Seasons=1 Ratings=[0,] normamps=450 emergamps=600
New "Line.hvmv69s3b1_sw" bus1=hvmv69s2s3_2 bus2=hvmv69sub3_hsb Switch=True r1=0.001 r0=0.001 x1=0.001 x0=0.001 C1=0 C0=0 length=0.001
New "Line.hvmv69s3b2_sw" bus1=hvmv11sub3_lsb bus2=e203026 Switch=True r1=0.001 r0=0.001 x1=0.001 x0=0.001 C1=0 C0=0 length=0.001
New "Line.ln5815900-1" bus1=e192860 bus2=m1209817 length=0.01959334 units=km geometry=3ph_h-397_acsr397_acsr397_acsr397_acsr Seasons=1 Ratings=[0,] normamps=450 emergamps=600
New "Line.ln5742828-1" bus1=m1209817 bus2=l2801909 length=0.02525228 units=km geometry=3ph_h-397_acsr397_acsr397_acsr397_acsr Seasons=1 Ratings=[0,] normamps=450 emergamps=600
New "Line.ln5742828-2" bus1=l2801909 bus2=m1209814 length=0.06927271 units=km geometry=3ph_h-397_acsr397_acsr397_acsr397_acsr Seasons=1 Ratings=[0,] normamps=450 emergamps=600
New "Line.ln5473414-1" bus1=m1209814 bus2=m1209811 length=0.1069487 units=km geometry=3ph_h-397_acsr397_acsr397_acsr397_acsr Seasons=1 Ratings=[0,] normamps=450 emergamps=600
New "Line.ln5714974-1" bus1=m1209811 bus2=m1209807 length=0.1226045 units=km geometry=3ph_h-397_acsr397_acsr397_acsr397_acsr Seasons=1 Ratings=[0,] normamps=450 emergamps=600
New "Line.ln5896798-1" bus1=m1209807 bus2=m1209805 length=0.04415994 units=km geometry=3ph_h-397_acsr397_acsr397_acsr397_acsr Seasons=1 Ratings=[0,] normamps=450 emergamps=600
New "Line.ln5775442-1" bus1=m1209805 bus2=l2823592 length=0.1055602 units=km geometry=3ph_h-397_acsr397_acsr397_acsr2/0_acsr Seasons=1 Ratings=[0,] normamps=450 emergamps=600
New "Line.cap_1a" bus1=l2823592.1 bus2=l2823592_cap.1 length=0.001 units=none r1=1 r0=1 x1=1 x0=1 C1=0 C0=0 phases=1
New "Line.cap_1b" bus1=l2823592.2 bus2=l2823592_cap.2 length=0.001 units=none r1=1 r0=1 x1=1 x0=1 C1=0 C0=0 phases=1
New "Line.cap_1c" bus1=l2823592.3 bus2=l2823592_cap.3 length=0.001 units=none r1=1 r0=1 x1=1 x0=1 C1=0 C0=0 phases=1
New "Line.ln5513564-2" bus1=l2823592_cap bus2=r20185 length=0.001 units=none r1=1 r0=1 x1=1 x0=1 C1=0 C0=0
New "Line.ln5513564-1" bus1=r20185 bus2=d5513564-1_int length=0.02128046 units=km geometry=3ph_h-397_acsr397_acsr397_acsr2/0_acsr Seasons=1 Ratings=[0,] normamps=450 emergamps=600
New "Line.xj171_48332_sw" bus1=d5513564-1_int bus2=e192201 Switch=True r1=0.001 r0=0.001 x1=0.001 x0=0.001 C1=0 C0=0 length=0.001
New "Line.ln6321409-1" bus1=e192201 bus2=m1209800 length=0.05568214 units=km geometry=3ph_h-397_acsr397_acsr397_acsr2/0_acsr Seasons=1 Ratings=[0,] normamps=450 emergamps=600
New "Line.ln5654466-1" bus1=m1209800 bus2=m1209797 length=0.07540477 units=km geometry=3ph_h-397_acsr397_acsr397_acsr2/0_acsr Seasons=1 Ratings=[0,] normamps=450 emergamps=600
New "Line.ln6291242-1" bus1=m1209797 bus2=m1209791 length=0.06659976 units=km geometry=3ph_h-397_acsr397_acsr397_acsr2/0_acsr Seasons=1 Ratings=[0,] normamps=450 emergamps=600
New "Line.ln5654472-1" bus1=m1209791 bus2=m1209790 length=0.05524293 units=km geometry=3ph_h-397_acsr397_acsr397_acsr2/0_acsr Seasons=1 Ratings=[0,] normamps=450 emergamps=600
New "Line.ln5594242-1" bus1=m1209790 bus2=m1209788 length=0.0591157 units=km geometry=3ph_h-397_acsr397_acsr397_acsr2/0_acsr Seasons=1 Ratings=[0,] normamps=450 emergamps=600
New "Line.ln6351519-1" bus1=m1209788 bus2=m1209787 length=0.1072102 units=km geometry=3ph_h-397_acsr397_acsr397_acsr2/0_acsr Seasons=1 Ratings=[0,] normamps=450 emergamps=600
New "Line.ln6261021-1" bus1=m1209787 bus2=l2823611 length=0.1243537 units=km geometry=3ph_h-397_acsr397_acsr397_acsr2/0_acsr Seasons=1 Ratings=[0,] normamps=450 emergamps=600
New "Line.ln5473440-1" bus1=l2823611 bus2=l3030204 length=0.08348992 units=km geometry=3ph_h-397_acsr397_acsr397_acsr2/0_acsr Seasons=1 Ratings=[0,] normamps=450 emergamps=600
New "Line.ln5866268-1" bus1=l3030204 bus2=m1186072 length=0.0671996 units=km geometry=3ph_h-397_acsr397_acsr397_acsr2/0_acsr Seasons=1 Ratings=[0,] normamps=450 emergamps=600
New "Line.ln0048634_sw" bus1=m1186072 bus2=d6048634-1_int Switch=True r1=0.001 r0=0.001 x1=0.001 x0=0.001 C1=0 C0=0 length=0.001
New "Line.ln6048634-1" bus1=d6048634-1_int bus2=m1186067 length=0.04217383 units=km geometry=3ph_h-397_acsr397_acsr397_acsr2/0_acsr Seasons=1 Ratings=[0,] normamps=450 emergamps=600
New "Line.ln6504019-5" bus1=m1186067 bus2=m3032980 length=0.05014083 units=km geometry=3ph_h-397_acsr397_acsr397_acsr2/0_acsr Seasons=1 Ratings=[0,] normamps=450 emergamps=600
New "Line.ln6504020-2" bus1=m3032980 bus2=m3032977 length=0.2574444 units=km geometry=3ph_h-397_acsr397_acsr397_acsr2/0_acsr Seasons=1 Ratings=[0,] normamps=450 emergamps=600
New "Line.ln6504018-1" bus1=m3032977 bus2=m1166366 length=0.3076146 units=km geometry=3ph_h-397_acsr397_acsr397_acsr2/0_acsr Seasons=1 Ratings=[0,] normamps=450 emergamps=600
New "Line.ln5957526-1" bus1=m1166366 bus2=m1166368 length=0.04116818 units=km geometry=3ph_h-397_acsr397_acsr397_acsr2/0_acsr Seasons=1 Ratings=[0,] normamps=450 emergamps=600
New "Line.ln5715052-1" bus1=m1166368 bus2=l2973833 length=0.1050882 units=km geometry=3ph_h-397_acsr397_acsr397_acsr2/0_acsr Seasons=1 Ratings=[0,] normamps=450 emergamps=600
New "Line.ln5866308-1" bus1=l2973833 bus2=m1166373 length=0.04140121 units=km geometry=3ph_h-397_acsr397_acsr397_acsr2/0_acsr Seasons=1 Ratings=[0,] normamps=450 emergamps=600
New "Line.ln6412354-1" bus1=m1166373 bus2=m1166374 length=0.009347399 units=km geometry=3ph_h-397_acsr397_acsr397_acsr2/0_acsr Seasons=1 Ratings=[0,] normamps=450 emergamps=600
New "Line.ln6412355-1" bus1=m1166374 bus2=l2786266 length=0.06764679 units=km geometry=3ph_h-397_acsr397_acsr397_acsr2/0_acsr Seasons=1 Ratings=[0,] normamps=450 emergamps=600
New "Line.ln5745355-1" bus1=l2786266 bus2=m1166375 length=0.03456459 units=km geometry=3ph_h-397_acsr397_acsr397_acsr2/0_acsr Seasons=1 Ratings=[0,] normamps=450 emergamps=600
New "Line.ln5896834-1" bus1=m1166375 bus2=l2842383 length=0.09683365 units=km geometry=3ph_h-397_acsr397_acsr397_acsr2/0_acsr Seasons=1 Ratings=[0,] normamps=450 emergamps=600
New "Line.ln6023352-1" bus1=l2842383 bus2=d6023352-1_int length=0.05295857 units=km geometry=3ph_h-397_acsr397_acsr397_acsr2/0_acsr Seasons=1 Ratings=[0,] normamps=450 emergamps=600
New "Line.l9407_48332_sw" bus1=d6023352-1_int bus2=e184626 Switch=True r1=0.001 r0=0.001 x1=0.001 x0=0.001 C1=0 C0=0 length=0.001
New "Line.ln6326450-1" bus1=e184626 bus2=m1166377 length=0.01031774 units=km geometry=3ph_h-397_acsr397_acsr397_acsr2/0_acsr Seasons=1 Ratings=[0,] normamps=450 emergamps=600
New "Line.ln5992960-1" bus1=m1166377 bus2=m1166376 length=0.03375975 units=km geometry=3ph_h-397_acsr397_acsr397_acsr2/0_acsr Seasons=1 Ratings=[0,] normamps=450 emergamps=600
New "Line.ln5508630-1" bus1=m1166376 bus2=l2842384 length=0.005246984 units=km geometry=3ph_h-397_acsr397_acsr397_acsr2/0_acsr Seasons=1 Ratings=[0,] normamps=450 emergamps=600
New "Line.ln5805762-1" bus1=l2842384 bus2=m1149236 length=0.06777269 units=km geometry=3ph_h-397_acsr397_acsr397_acsr2/0_acsr Seasons=1 Ratings=[0,] normamps=450 emergamps=600
New "Line.ln6018336-1" bus1=m1149236 bus2=m1149235 length=0.04155912 units=km geometry=3ph_h-397_acsr397_acsr397_acsr2/0_acsr Seasons=1 Ratings=[0,] normamps=450 emergamps=600
New "Line.ln5563942-4" bus1=m1149235 bus2=d5563942-4_int length=0.03113334 units=km geometry=3ph_h-397_acsr397_acsr397_acsr2/0_acsr Seasons=1 Ratings=[0,] normamps=450 emergamps=600
New "Line.2002200004868472_sw" bus1=d5563942-4_int bus2=q16483 Switch=True r1=0.001 r0=0.001 x1=0.001 x0=0.001 C1=0 C0=0 length=0.001
New "Line.cap_2a" bus1=q16483.1 bus2=q16483_cap.1 length=0.001 units=none r1=1 r0=1 x1=1 x0=1 C1=0 C0=0 phases=1
New "Line.cap_2b" bus1=q16483.2 bus2=q16483_cap.2 length=0.001 units=none r1=1 r0=1 x1=1 x0=1 C1=0 C0=0 phases=1
New "Line.cap_2c" bus1=q16483.3 bus2=q16483_cap.3 length=0.001 units=none r1=1 r0=1 x1=1 x0=1 C1=0 C0=0 phases=1
New "Line.ln5563942-5" bus1=q16483_cap bus2=r42247 length=0.005259517 units=km geometry=3ph_h-397_acsr397_acsr397_acsr2/0_acsr Seasons=1 Ratings=[0,] normamps=450 emergamps=600
New "Line.ln5563942-3" bus1=r42247 bus2=m1149233 length=0.03974841 units=km geometry=3ph_h-397_acsr397_acsr397_acsr2/0_acsr Seasons=1 Ratings=[0,] normamps=450 emergamps=600
New "Line.ln5896833-1" bus1=m1149233 bus2=l3048965 length=0.09739563 units=km geometry=3ph_h-397_acsr397_acsr397_acsr2/0_acsr Seasons=1 Ratings=[0,] normamps=450 emergamps=600
New "Line.ln5805761-1" bus1=l3048965 bus2=m1142843 length=0.05134039 units=km geometry=3ph_h-397_acsr397_acsr397_acsr2/0_acsr Seasons=1 Ratings=[0,] normamps=450 emergamps=600
New "Line.ln5895787-1" bus1=m1026329 bus2=m1026328 length=0.03416764 units=km geometry=3ph_h-397_acsr397_acsr397_acsr2/0_acsr Seasons=1 Ratings=[0,] normamps=450 emergamps=600
New "Line.ln5835149-1" bus1=m1026330 bus2=m1026329 length=0.03605911 units=km geometry=3ph_h-397_acsr397_acsr397_acsr2/0_acsr Seasons=1 Ratings=[0,] normamps=450 emergamps=600
New "Line.ln6198013-1" bus1=m1026331 bus2=m1026330 length=0.05676418 units=km geometry=3ph_h-397_acsr397_acsr397_acsr2/0_acsr Seasons=1 Ratings=[0,] normamps=450 emergamps=600
New "Line.ln6198013-2" bus1=m1026333 bus2=m1026331 length=0.04612085 units=km geometry=3ph_h-397_acsr397_acsr397_acsr2/0_acsr Seasons=1 Ratings=[0,] normamps=450 emergamps=600
New "Line.ln6017302-1" bus1=l2973162 bus2=m1026333 length=0.05315063 units=km geometry=3ph_h-397_acsr397_acsr397_acsr2/0_acsr Seasons=1 Ratings=[0,] normamps=450 emergamps=600
New "Line.ln5683830-1" bus1=m1026341 bus2=l2973162 length=0.06856746 units=km geometry=3ph_h-397_acsr397_acsr397_acsr2/0_acsr Seasons=1 Ratings=[0,] normamps=450 emergamps=600
New "Line.ln5623408-1" bus1=m1026347 bus2=m1026341 length=0.05094784 units=km geometry=3ph_h-397_acsr397_acsr397_acsr2/0_acsr Seasons=1 Ratings=[0,] normamps=450 emergamps=600
New "Line.ln5774496-1" bus1=l3235275 bus2=m1026347 length=0.0859726 units=km geometry=3ph_h-397_acsr397_acsr397_acsr2/0_acsr Seasons=1 Ratings=[0,] normamps=450 emergamps=600
New "Line.ln5865271-1" bus1=m1026354 bus2=l3235275 length=0.07183827 units=km geometry=3ph_h-397_acsr397_acsr397_acsr2/0_acsr Seasons=1 Ratings=[0,] normamps=450 emergamps=600
New "Line.ln5895818-1" bus1=m1026356 bus2=m1026354 length=0.03874359 units=km geometry=3ph_h-397_acsr397_acsr397_acsr2/0_acsr Seasons=1 Ratings=[0,] normamps=450 emergamps=600
New "Line.ln5532791-1" bus1=m1026357 bus2=m1026356 length=0.02959428 units=km geometry=3ph_h-397_acsr397_acsr397_acsr2/0_acsr Seasons=1 Ratings=[0,] normamps=450 emergamps=600
New "Line.ln5956503-1" bus1=l3122849 bus2=m1026357 length=0.08398142 units=km geometry=3ph_h-397_acsr397_acsr397_acsr2/0_acsr Seasons=1 Ratings=[0,] normamps=450 emergamps=600
New "Line.ln6320368-1" bus1=l2691954 bus2=l3122849 length=0.06420695 units=km geometry=3ph_h-397_acsr397_acsr397_acsr2/0_acsr Seasons=1 Ratings=[0,] normamps=450 emergamps=600
New "Line.ln6229835-1" bus1=m1047292 bus2=l2691954 length=0.08860452 units=km geometry=3ph_h-397_acsr397_acsr397_acsr2/0_acsr Seasons=1 Ratings=[0,] normamps=450 emergamps=600
New "Line.ln6047605-1" bus1=m1047293 bus2=m1047292 length=0.0200942 units=km geometry=3ph_h-397_acsr397_acsr397_acsr2/0_acsr Seasons=1 Ratings=[0,] normamps=450 emergamps=600
New "Line.ln6379462-3" bus1=l2763153 bus2=m1047293 length=0.04834725 units=km geometry=3ph_h-397_acsr397_acsr397_acsr2/0_acsr Seasons=1 Ratings=[0,] normamps=450 emergamps=600
New "Line.ln6379462-2" bus1=l3139121 bus2=l2763153 length=0.07501114 units=km geometry=3ph_h-397_acsr397_acsr397_acsr2/0_acsr Seasons=1 Ratings=[0,] normamps=450 emergamps=600
New "Line.ln6379462-1" bus1=m1047299 bus2=l3139121 length=0.04498975 units=km geometry=3ph_h-397_acsr397_acsr397_acsr2/0_acsr Seasons=1 Ratings=[0,] normamps=450 emergamps=600
New "Line.ln5804836-1" bus1=m1047300 bus2=m1047299 length=0.06285215 units=km geometry=3ph_h-397_acsr397_acsr397_acsr2/0_acsr Seasons=1 Ratings=[0,] normamps=450 emergamps=600
New "Line.ln5774497-1" bus1=l3027116 bus2=m1047300 length=0.06888704 units=km geometry=3ph_h-397_acsr397_acsr397_acsr2/0_acsr Seasons=1 Ratings=[0,] normamps=450 emergamps=600
New "Line.ln5865272-1" bus1=m1047303 bus2=l3027116 length=0.07220582 units=km geometry=3ph_h-397_acsr397_acsr397_acsr2/0_acsr Seasons=1 Ratings=[0,] normamps=450 emergamps=600
New "Line.ln6380847-1" bus1=m1047303 bus2=l3254238 length=0.09931373 units=km geometry=3ph_h-397_acsr397_acsr397_acsr2/0_acsr Seasons=1 Ratings=[0,] normamps=450 emergamps=600
New "Line.ln6350577-1" bus1=l2673346 bus2=l3254238 length=0.1291806 units=km geometry=3ph_h-397_acsr397_acsr397_acsr2/0_acsr Seasons=1 Ratings=[0,] normamps=450 emergamps=600
New "Line.ln6171508-1" bus1=e182748 bus2=l2673346 length=0.06395981 units=km geometry=3ph_h-397_acsr397_acsr397_acsr2/0_acsr Seasons=1 Ratings=[0,] normamps=450 emergamps=600
New "Line.l5523_48332_sw" bus1=d6049825-1_int bus2=e182748 Switch=True r1=0.001 r0=0.001 x1=0.001 x0=0.001 C1=0 C0=0 length=0.001
New "Line.ln6049825-1" bus1=m1047309 bus2=d6049825-1_int length=0.004571141 units=km geometry=3ph_h-397_acsr397_acsr397_acsr2/0_acsr Seasons=1 Ratings=[0,] normamps=450 emergamps=600
New "Line.ln6320367-2" bus1=n1137960 bus2=m1047309 length=0.02515208 units=km geometry=3ph_h-397_acsr397_acsr397_acsr2/0_acsr Seasons=1 Ratings=[0,] normamps=450 emergamps=600
New "Line.ln6320367-3" bus1=m1047312 bus2=n1137960 length=0.01516922 units=km geometry=3ph_h-397_acsr397_acsr397_acsr2/0_acsr Seasons=1 Ratings=[0,] normamps=450 emergamps=600
New "Line.ln6199560-1" bus1=l3216370 bus2=m1047312 length=0.1008807 units=km geometry=3ph_h-397_acsr397_acsr397_acsr2/0_acsr Seasons=1 Ratings=[0,] normamps=450 emergamps=600
New "Line.ln5593253-1" bus1=m1047316 bus2=l3216370 length=0.0146964 units=km geometry=3ph_h-397_acsr397_acsr397_acsr2/0_acsr Seasons=1 Ratings=[0,] normamps=450 emergamps=600
New "Line.ln5714080-1" bus1=l3235255 bus2=m1047316 length=0.0512085 units=km geometry=3ph_h-397_acsr397_acsr397_acsr2/0_acsr Seasons=1 Ratings=[0,] normamps=450 emergamps=600
New "Line.ln5744341-1" bus1=l2897780 bus2=l3235255 length=0.0435721 units=km geometry=3ph_h-397_acsr397_acsr397_acsr2/0_acsr Seasons=1 Ratings=[0,] normamps=450 emergamps=600
New "Line.ln5986935-1" bus1=m1047324 bus2=l2897780 length=0.09259677 units=km geometry=3ph_h-397_acsr397_acsr397_acsr2/0_acsr Seasons=1 Ratings=[0,] normamps=450 emergamps=600
New "Line.ln6350546-1" bus1=m1047325 bus2=m1047324 length=0.009183718 units=km geometry=3ph_h-397_acsr397_acsr397_acsr2/0_acsr Seasons=1 Ratings=[0,] normamps=450 emergamps=600
New "Line.ln5926308-2" bus1=q14412 bus2=m1047325 length=0.03394498 units=km geometry=3ph_h-397_acsr397_acsr397_acsr2/0_acsr Seasons=1 Ratings=[0,] normamps=450 emergamps=600
New "Line.ln4625696_sw" bus1=d5926308-3_int bus2=q14412 Switch=True r1=0.001 r0=0.001 x1=0.001 x0=0.001 C1=0 C0=0 length=0.001
New "Line.ln5926308-3" bus1=l2860491 bus2=d5926308-3_int length=0.03434426 units=km geometry=3ph_h-397_acsr397_acsr397_acsr2/0_acsr Seasons=1 Ratings=[0,] normamps=450 emergamps=600
New "Line.ln5472370-1" bus1=m1047339 bus2=l2860491 length=0.08287784 units=km geometry=3ph_h-397_acsr397_acsr397_acsr2/0_acsr Seasons=1 Ratings=[0,] normamps=450 emergamps=600
New "Line.ln6047583-1" bus1=l2991922 bus2=m1047339 length=0.07220793 units=km geometry=3ph_h-397_acsr397_acsr397_acsr2/0_acsr Seasons=1 Ratings=[0,] normamps=450 emergamps=600
New "Line.ln6047584-1" bus1=m1047345 bus2=l2991922 length=0.05462726 units=km geometry=3ph_h-397_acsr397_acsr397_acsr2/0_acsr Seasons=1 Ratings=[0,] normamps=450 emergamps=600
New "Line.ln5865248-1" bus1=m1047346 bus2=m1047345 length=0.04314574 units=km geometry=3ph_h-397_acsr397_acsr397_acsr2/0_acsr Seasons=1 Ratings=[0,] normamps=450 emergamps=600
New "Line.ln5472369-1" bus1=l3104134 bus2=m1047346 length=0.0464913 units=km geometry=3ph_h-397_acsr397_acsr397_acsr2/0_acsr Seasons=1 Ratings=[0,] normamps=450 emergamps=600
New "Line.ln5683831-1" bus1=l2860490 bus2=l3104134 length=0.06335789 units=km geometry=3ph_h-397_acsr397_acsr397_acsr2/0_acsr Seasons=1 Ratings=[0,] normamps=450 emergamps=600
New "Line.ln6199527-1" bus1=l3254218 bus2=l2860490 length=0.07126449 units=km geometry=3ph_h-397_acsr397_acsr397_acsr2/0_acsr Seasons=1 Ratings=[0,] normamps=450 emergamps=600
New "Line.ln6199530-1" bus1=r18242 bus2=l3254218 length=0.03786623 units=km geometry=3ph_h-397_acsr397_acsr397_acsr2/0_acsr Seasons=1 Ratings=[0,] normamps=450 emergamps=600
New "Line.ln6138614-1" bus1=m1069135 bus2=r18242 length=0.07099026 units=km geometry=3ph_h-397_acsr397_acsr397_acsr2/0_acsr Seasons=1 Ratings=[0,] normamps=450 emergamps=600
New "Line.ln5804802-1" bus1=m1069136 bus2=m1069135 length=0.07517677 units=km geometry=3ph_h-397_acsr397_acsr397_acsr2/0_acsr Seasons=1 Ratings=[0,] normamps=450 emergamps=600
New "Line.ln5593239-1" bus1=l3235256 bus2=m1069136 length=0.03489369 units=km geometry=3ph_h-397_acsr397_acsr397_acsr2/0_acsr Seasons=1 Ratings=[0,] normamps=450 emergamps=600
New "Line.ln6229807-1" bus1=l3197630 bus2=l3235256 length=0.1197047 units=km geometry=3ph_h-397_acsr397_acsr397_acsr2/0_acsr Seasons=1 Ratings=[0,] normamps=450 emergamps=600
New "Line.ln6047561-1" bus1=m1069154 bus2=l3197630 length=0.1777074 units=km geometry=3ph_h-397_acsr397_acsr397_acsr2/0_acsr Seasons=1 Ratings=[0,] normamps=450 emergamps=600
New "Line.ln5532743-1" bus1=m1069155 bus2=m1069154 length=0.1005498 units=km geometry=3ph_h-397_acsr397_acsr397_acsr2/0_acsr Seasons=1 Ratings=[0,] normamps=450 emergamps=600
New "Line.ln5774453-1" bus1=m1069156 bus2=m1069155 length=0.124963 units=km geometry=3ph_h-397_acsr397_acsr397_acsr2/0_acsr Seasons=1 Ratings=[0,] normamps=450 emergamps=600
New "Line.ln6320329-1" bus1=l3048206 bus2=m1069156 length=0.05989324 units=km geometry=3ph_h-397_acsr397_acsr397_acsr2/0_acsr Seasons=1 Ratings=[0,] normamps=450 emergamps=600
New "Line.ln5956463-1" bus1=l2766718 bus2=l3048206 length=0.09179754 units=km geometry=3ph_h-397_acsr397_acsr397_acsr2/0_acsr Seasons=1 Ratings=[0,] normamps=450 emergamps=600
New "Line.ln5593222-1" bus1=l3010556 bus2=l2766718 length=0.1061942 units=km geometry=3ph_h-397_acsr397_acsr397_acsr2/0_acsr Seasons=1 Ratings=[0,] normamps=450 emergamps=600
New "Line.ln5804791-1" bus1=m1069169 bus2=l3010556 length=0.07335584 units=km geometry=3ph_h-397_acsr397_acsr397_acsr2/0_acsr Seasons=1 Ratings=[0,] normamps=450 emergamps=600
New "Line.ln5806919-1" bus1=e182724 bus2=m1069169 length=0.09299546 units=km geometry=3ph_h-397_acsr397_acsr397_acsr2/0_acsr Seasons=1 Ratings=[0,] normamps=450 emergamps=600
New "Line.x8223_48332_sw" bus1=d6413567-3_int bus2=e182724 Switch=True r1=0.001 r0=0.001 x1=0.001 x0=0.001 C1=0 C0=0 length=0.001
New "Line.ln6413567-3" bus1=n1139541 bus2=d6413567-3_int length=0.01496679 units=km geometry=3ph_h-397_acsr397_acsr397_acsr2/0_acsr Seasons=1 Ratings=[0,] normamps=450 emergamps=600
New "Line.ln6413567-2" bus1=m1069175 bus2=n1139541 length=0.04358614 units=km geometry=3ph_h-397_acsr397_acsr397_acsr2/0_acsr Seasons=1 Ratings=[0,] normamps=450 emergamps=600
New "Line.ln6017299-1" bus1=m1069184 bus2=m1069175 length=0.06387652 units=km geometry=3ph_h-397_acsr397_acsr397_acsr2/0_acsr Seasons=1 Ratings=[0,] normamps=450 emergamps=600
New "Line.ln6108136-1" bus1=m1069189 bus2=m1069184 length=0.02582866 units=km geometry=3ph_h-397_acsr397_acsr397_acsr2/0_acsr Seasons=1 Ratings=[0,] normamps=450 emergamps=600
New "Line.ln5501088-1" bus1=l3195356 bus2=m1069189 length=0.07228537 units=km geometry=3ph_h-397_acsr397_acsr397_acsr2/0_acsr Seasons=1 Ratings=[0,] normamps=450 emergamps=600
New "Line.ln5863823-1" bus1=m1089112 bus2=l3195356 length=0.03929099 units=km geometry=3ph_h-397_acsr397_acsr397_acsr2/0_acsr Seasons=1 Ratings=[0,] normamps=450 emergamps=600
New "Line.ln5593234-1" bus1=m1089115 bus2=m1089112 length=0.09150361 units=km geometry=3ph_h-397_acsr397_acsr397_acsr2/0_acsr Seasons=1 Ratings=[0,] normamps=450 emergamps=600
New "Line.ln5835143-1" bus1=m1089118 bus2=m1089115 length=0.1617083 units=km geometry=3ph_h-397_acsr397_acsr397_acsr2/0_acsr Seasons=1 Ratings=[0,] normamps=450 emergamps=600
New "Line.ln5683823-1" bus1=m1089119 bus2=m1089118 length=0.078884 units=km geometry=3ph_h-397_acsr397_acsr397_acsr2/0_acsr Seasons=1 Ratings=[0,] normamps=450 emergamps=600
New "Line.ln5472360-1" bus1=m1089120 bus2=m1089119 length=0.05793432 units=km geometry=3ph_h-397_acsr397_acsr397_acsr2/0_acsr Seasons=1 Ratings=[0,] normamps=450 emergamps=600
New "Line.ln5472335_sw" bus1=d5472350-1_int bus2=m1089120 Switch=True r1=0.001 r0=0.001 x1=0.001 x0=0.001 C1=0 C0=0 length=0.001
New "Line.ln5502532-1" bus1=190-7361 bus2=d5472350-1_int length=0.005820451 units=km geometry=3ph_h-397_acsr397_acsr397_acsr2/0_acsr Seasons=1 Ratings=[0,] normamps=450 emergamps=600
New "Line.ln6138608-2" bus1=q14404 bus2=regxfmr_190-7361 length=0.004597065 units=km geometry=3ph_h-397_acsr397_acsr397_acsr2/0_acsr Seasons=1 Ratings=[0,] normamps=450 emergamps=600
New "Line.ln4586093_sw" bus1=d6138608-3_int bus2=q14404 Switch=True r1=0.001 r0=0.001 x1=0.001 x0=0.001 C1=0 C0=0 length=0.001
New "Line.ln6138608-3" bus1=l3029502 bus2=d6138608-3_int length=0.08551689 units=km geometry=3ph_h-397_acsr397_acsr397_acsr2/0_acsr Seasons=1 Ratings=[0,] normamps=450 emergamps=600
New "Line.ln6290212-1" bus1=m1089131 bus2=l3029502 length=0.09576997 units=km geometry=3ph_h-397_acsr397_acsr397_acsr2/0_acsr Seasons=1 Ratings=[0,] normamps=450 emergamps=600
New "Line.ln5502531-1" bus1=l3104125 bus2=m1089131 length=0.0382469 units=km geometry=3ph_h-397_acsr397_acsr397_acsr2/0_acsr Seasons=1 Ratings=[0,] normamps=450 emergamps=600
New "Line.ln6350541-1" bus1=l3160107 bus2=l3104125 length=0.1078279 units=km geometry=3ph_h-397_acsr397_acsr397_acsr2/0_acsr Seasons=1 Ratings=[0,] normamps=450 emergamps=600
New "Line.ln6259995-1" bus1=m1089141 bus2=l3160107 length=0.1105514 units=km geometry=3ph_h-397_acsr397_acsr397_acsr2/0_acsr Seasons=1 Ratings=[0,] normamps=450 emergamps=600
New "Line.ln5502533-1" bus1=m1089143 bus2=m1089141 length=0.1373578 units=km geometry=3ph_h-397_acsr397_acsr397_acsr2/0_acsr Seasons=1 Ratings=[0,] normamps=450 emergamps=600
New "Line.ln5623403-1" bus1=l3029498 bus2=m1089143 length=0.08771341 units=km geometry=3ph_h-397_acsr397_acsr397_acsr2/0_acsr Seasons=1 Ratings=[0,] normamps=450 emergamps=600
New "Line.ln6440069-1" bus1=l2933164 bus2=l3029498 length=0.06749109 units=km geometry=3ph_h-397_acsr397_acsr397_acsr2/0_acsr Seasons=1 Ratings=[0,] normamps=450 emergamps=600
New "Line.ln5955063-1" bus1=m1108286 bus2=l2933164 length=0.07929255 units=km geometry=3ph_h-397_acsr397_acsr397_acsr2/0_acsr Seasons=1 Ratings=[0,] normamps=450 emergamps=600
New "Line.ln5527400-1" bus1=l2688692 bus2=m1108286 length=0.005096697 units=km geometry=3ph_h-397_acsr397_acsr397_acsr2/0_acsr Seasons=1 Ratings=[0,] normamps=450 emergamps=600
New "Line.ln6256144-1" bus1=l2688693 bus2=l2688692 length=0.03917884 units=km geometry=3ph_h-397_acsr397_acsr397_acsr2/0_acsr Seasons=1 Ratings=[0,] normamps=450 emergamps=600
New "Line.ln6256144-3" bus1=n1139547 bus2=l2688693 length=0.08502586 units=km geometry=3ph_h-397_acsr397_acsr397_acsr2/0_acsr Seasons=1 Ratings=[0,] normamps=450 emergamps=600
New "Line.ln6256144-4" bus1=l2804249 bus2=n1139547 length=0.07100756 units=km geometry=3ph_h-397_acsr397_acsr397_acsr2/0_acsr Seasons=1 Ratings=[0,] normamps=450 emergamps=600
New "Line.ln6079946-1" bus1=l3179678 bus2=l2804249 length=0.1177636 units=km geometry=3ph_h-397_acsr397_acsr397_acsr2/0_acsr Seasons=1 Ratings=[0,] normamps=450 emergamps=600
New "Line.ln5473449-1" bus1=l2936279 bus2=l3179678 length=0.1017066 units=km geometry=3ph_h-397_acsr397_acsr397_acsr2/0_acsr Seasons=1 Ratings=[0,] normamps=450 emergamps=600
New "Line.ln6109158-1" bus1=m1108295 bus2=l2936279 length=0.08373852 units=km geometry=3ph_h-397_acsr397_acsr397_acsr2/0_acsr Seasons=1 Ratings=[0,] normamps=450 emergamps=600
New "Line.ln6351524-1" bus1=l3011298 bus2=m1108295 length=0.08015593 units=km geometry=3ph_h-397_acsr397_acsr397_acsr2/0_acsr Seasons=1 Ratings=[0,] normamps=450 emergamps=600
New "Line.ln6106511-1" bus1=196-36167 bus2=l3011298 length=0.08155228 units=km geometry=3ph_h-397_acsr397_acsr397_acsr2/0_acsr Seasons=1 Ratings=[0,] normamps=450 emergamps=600
New "Line.ln5531195-1" bus1=m1108298 bus2=196-36167 length=0.03926728 units=km geometry=3ph_h-397_acsr397_acsr397_acsr2/0_acsr Seasons=1 Ratings=[0,] normamps=450 emergamps=600
New "Line.ln6321427-1" bus1=l2879773 bus2=m1108298 length=0.09267141 units=km geometry=3ph_h-397_acsr397_acsr397_acsr2/0_acsr Seasons=1 Ratings=[0,] normamps=450 emergamps=600
New "Line.ln0170302_sw" bus1=d6170302-1_int bus2=l2879773 Switch=True r1=0.001 r0=0.001 x1=0.001 x0=0.001 C1=0 C0=0 length=0.001
New "Line.ln6170302-1" bus1=m1108311 bus2=d6170302-1_int length=0.08882654 units=km geometry=3ph_h-397_acsr397_acsr397_acsr2/0_acsr Seasons=1 Ratings=[0,] normamps=450 emergamps=600
New "Line.ln6291253-1" bus1=m1108315 bus2=m1108311 length=0.07220285 units=km geometry=3ph_h-397_acsr397_acsr397_acsr2/0_acsr Seasons=1 Ratings=[0,] normamps=450 emergamps=600
New "Line.ln6018341-1" bus1=l2955081 bus2=m1108315 length=0.09468487 units=km geometry=3ph_h-397_acsr397_acsr397_acsr2/0_acsr Seasons=1 Ratings=[0,] normamps=450 emergamps=600
New "Line.ln6291252-2" bus1=226-23751 bus2=l2955081 length=0.04193955 units=km geometry=3ph_h-397_acsr397_acsr397_acsr2/0_acsr Seasons=1 Ratings=[0,] normamps=450 emergamps=600
New "Line.ln6291252-1" bus1=m1125902 bus2=226-23751 length=0.0758688 units=km geometry=3ph_h-397_acsr397_acsr397_acsr2/0_acsr Seasons=1 Ratings=[0,] normamps=450 emergamps=600
New "Line.ln6201850-1" bus1=e183493 bus2=m1125902 length=0.08925905 units=km geometry=3ph_h-397_acsr397_acsr397_acsr2/0_acsr Seasons=1 Ratings=[0,] normamps=450 emergamps=600
New "Line.a8645_48332_sw" bus1=d5958866-1_int bus2=e183493 Switch=True r1=0.001 r0=0.001 x1=0.001 x0=0.001 C1=0 C0=0 length=0.001
New "Line.ln5958866-1" bus1=l2861218 bus2=d5958866-1_int length=0.1593378 units=km geometry=3ph_h-397_acsr397_acsr397_acsr2/0_acsr Seasons=1 Ratings=[0,] normamps=450 emergamps=600
New "Line.ln6351511-1" bus1=l2917328 bus2=l2861218 length=0.06460124 units=km geometry=3ph_h-397_acsr397_acsr397_acsr2/0_acsr Seasons=1 Ratings=[0,] normamps=450 emergamps=600
New "Line.ln6078768-1" bus1=m1125914 bus2=l2917328 length=0.04200085 units=km geometry=3ph_h-397_acsr397_acsr397_acsr2/0_acsr Seasons=1 Ratings=[0,] normamps=450 emergamps=600
New "Line.ln5957493-1" bus1=m1125917 bus2=m1125914 length=0.09095299 units=km geometry=3ph_h-397_acsr397_acsr397_acsr2/0_acsr Seasons=1 Ratings=[0,] normamps=450 emergamps=600
New "Line.ln5745347-1" bus1=m1125919 bus2=m1125917 length=0.03999682 units=km geometry=3ph_h-397_acsr397_acsr397_acsr2/0_acsr Seasons=1 Ratings=[0,] normamps=450 emergamps=600
New "Line.ln6170293-1" bus1=l2992624 bus2=m1125919 length=0.05105121 units=km geometry=3ph_h-397_acsr397_acsr397_acsr2/0_acsr Seasons=1 Ratings=[0,] normamps=450 emergamps=600
New "Line.ln6200527-1" bus1=l2730163 bus2=l2992624 length=0.0845323 units=km geometry=3ph_h-397_acsr397_acsr397_acsr2/0_acsr Seasons=1 Ratings=[0,] normamps=450 emergamps=600
New "Line.ln5503576-1" bus1=m1125934 bus2=l2730163 length=0.06337631 units=km geometry=3ph_h-397_acsr397_acsr397_acsr2/0_acsr Seasons=1 Ratings=[0,] normamps=450 emergamps=600
New "Line.ln6078767-1" bus1=l3030199 bus2=m1125934 length=0.02929477 units=km geometry=3ph_h-397_acsr397_acsr397_acsr2/0_acsr Seasons=1 Ratings=[0,] normamps=450 emergamps=600
New "Line.ln5594239-1" bus1=l2955074 bus2=l3030199 length=0.08915953 units=km geometry=3ph_h-397_acsr397_acsr397_acsr2/0_acsr Seasons=1 Ratings=[0,] normamps=450 emergamps=600
New "Line.ln6200532-1" bus1=m1142818 bus2=l2955074 length=0.09315243 units=km geometry=3ph_h-397_acsr397_acsr397_acsr2/0_acsr Seasons=1 Ratings=[0,] normamps=450 emergamps=600
New "Line.ln5745348-1" bus1=m1142819 bus2=m1142818 length=0.07498476 units=km geometry=3ph_h-397_acsr397_acsr397_acsr2/0_acsr Seasons=1 Ratings=[0,] normamps=450 emergamps=600
New "Line.ln5654471-1" bus1=l2711226 bus2=m1142819 length=0.07816807 units=km geometry=3ph_h-397_acsr397_acsr397_acsr2/0_acsr Seasons=1 Ratings=[0,] normamps=450 emergamps=600
New "Line.ln6351510-1" bus1=m1142821 bus2=l2711226 length=0.001633431 units=km geometry=3ph_h-397_acsr397_acsr397_acsr2/0_acsr Seasons=1 Ratings=[0,] normamps=450 emergamps=600
New "Line.ln5896825-1" bus1=l2692655 bus2=m1142821 length=0.05352371 units=km geometry=3ph_h-397_acsr397_acsr397_acsr2/0_acsr Seasons=1 Ratings=[0,] normamps=450 emergamps=600
New "Line.ln5473436-2" bus1=l2674047 bus2=l2692655 length=0.06085092 units=km geometry=3ph_h-397_acsr397_acsr397_acsr2/0_acsr Seasons=1 Ratings=[0,] normamps=450 emergamps=600
New "Line.ln5473436-1" bus1=m1142828 bus2=l2674047 length=0.0003048 units=km geometry=3ph_h-397_acsr397_acsr397_acsr2/0_acsr Seasons=1 Ratings=[0,] normamps=450 emergamps=600
New "Line.ln6291244-1" bus1=l3160865 bus2=m1142828 length=0.1306013 units=km geometry=3ph_h-397_acsr397_acsr397_acsr2/0_wpal Seasons=1 Ratings=[0,] normamps=450 emergamps=600
New "Line.ln6018331-1" bus1=m1142832 bus2=l3160865 length=0.0670797 units=km geometry=3ph_h-397_acsr397_acsr397_acsr2/0_acsr Seasons=1 Ratings=[0,] normamps=450 emergamps=600
New "Line.ln5503575-1" bus1=m1142839 bus2=m1142832 length=0.07299226 units=km geometry=3ph_h-397_acsr397_acsr397_acsr2/0_acsr Seasons=1 Ratings=[0,] normamps=450 emergamps=600
New "Line.ln5594236-1" bus1=e193509 bus2=m1142839 length=0.06240823 units=km geometry=3ph_h-397_acsr397_acsr397_acsr2/0_acsr Seasons=1 Ratings=[0,] normamps=450 emergamps=600
New "Line.a8611_48332_sw" bus1=d5799561-2_int bus2=e193509 Switch=True r1=0.001 r0=0.001 x1=0.001 x0=0.001 C1=0 C0=0 length=0.001
New "Line.ln5799561-2" bus1=l3081380 bus2=d5799561-2_int length=0.09212063 units=km geometry=3ph_h-397_acsr397_acsr397_acsr2/0_acsr Seasons=1 Ratings=[0,] normamps=450 emergamps=600
New "Line.ln5799561-1" bus1=m1142843 bus2=l3081380 length=0.110589 units=km geometry=3ph_h-397_acsr397_acsr397_acsr2/0_acsr Seasons=1 Ratings=[0,] normamps=450 emergamps=600
New "Line.ln0138609_sw" bus1=m1089112 bus2=d6138609-1_int Switch=True r1=0.001 r0=0.001 x1=0.001 x0=0.001 C1=0 C0=0 length=0.001
New "Line.ln6138609-1" bus1=d6138609-1_int bus2=l2691951 length=0.06504075 units=km geometry=3ph_h-2/0_acsr2/0_acsr2/0_acsr2_acsr Seasons=1 Ratings=[0,] normamps=225 emergamps=300
New "Line.ln6292465-2" bus1=l2691951 bus2=n1139542 length=0.02311777 units=km geometry=3ph_h-2/0_acsr2/0_acsr2/0_acsr2_acsr Seasons=1 Ratings=[0,] normamps=225 emergamps=300
...
